topology_creation/OpenDSS_data/LINES_LV_3.dss
new line.LVN_3_1 bus1=LVN_3_b1 bus2=LVN_3_b338 phases=3 linecode=4c_35 length=11.501600 units=m
new line.LVN_3_2 bus1=LVN_3_b5 bus2=LVN_3_b9 phases=3 linecode=4c_35 length=29.858200 units=m
new line.LVN_3_3 bus1=LVN_3_b5 bus2=LVN_3_b10 phases=3 linecode=4c_35 length=9.235060 units=m
new line.LVN_3_4 bus1=LVN_3_b5 bus2=LVN_3_b192 phases=3 linecode=4c_35 length=9.843340 units=m
new line.LVN_3_5 bus1=LVN_3_b9 bus2=LVN_3_b98 phases=3 linecode=35_SA length=18.316300 units=m
new line.LVN_3_6 bus1=LVN_3_b9 bus2=LVN_3_b99 phases=3 linecode=4c_35 length=7.924910 units=m
new line.LVN_3_7 bus1=LVN_3_b10 bus2=LVN_3_b14 phases=3 linecode=4c_35 length=20.555200 units=m
new line.LVN_3_8 bus1=LVN_3_b10 bus2=LVN_3_b26 phases=3 linecode=4c_35 length=9.675810 units=m
new line.LVN_3_9 bus1=LVN_3_b14 bus2=LVN_3_b31 phases=3 linecode=4c_35 length=12.364600 units=m
new line.LVN_3_10 bus1=LVN_3_b14 bus2=LVN_3_b55 phases=3 linecode=4c_35 length=25.031800 units=m
new line.LVN_3_11 bus1=LVN_3_b19 bus2=LVN_3_b20 phases=3 linecode=2c_16 length=8.020750 units=m
new line.LVN_3_12 bus1=LVN_3_b19 bus2=LVN_3_b21 phases=3 linecode=2c_16 length=7.895080 units=m
new line.LVN_3_13 bus1=LVN_3_b19 bus2=LVN_3_b25 phases=3 linecode=2c_16 length=8.722030 units=m
new line.LVN_3_14 bus1=LVN_3_b19 bus2=LVN_3_b63 phases=3 linecode=4c_35 length=21.952900 units=m
new line.LVN_3_15 bus1=LVN_3_b26 bus2=LVN_3_b38 phases=3 linecode=35_SA length=7.167590 units=m
new line.LVN_3_16 bus1=LVN_3_b26 bus2=LVN_3_b41 phases=3 linecode=35_SA length=6.965830 units=m
new line.LVN_3_17 bus1=LVN_3_b26 bus2=LVN_3_b46 phases=3 linecode=2c_16 length=5.812580 units=m
new line.LVN_3_18 bus1=LVN_3_b31 bus2=LVN_3_b68 phases=3 linecode=2c_16 length=5.678720 units=m
new line.LVN_3_19 bus1=LVN_3_b31 bus2=LVN_3_b72 phases=3 linecode=35_SA length=5.953710 units=m
new line.LVN_3_20 bus1=LVN_3_b31 bus2=LVN_3_b73 phases=3 linecode=4c_35 length=11.727100 units=m
new line.LVN_3_21 bus1=LVN_3_b34 bus2=LVN_3_b37 phases=3 linecode=2c_16 length=9.112330 units=m
new line.LVN_3_22 bus1=LVN_3_b37 bus2=LVN_3_b48 phases=3 linecode=35_SA length=9.311790 units=m
new line.LVN_3_23 bus1=LVN_3_b37 bus2=LVN_3_b59 phases=3 linecode=2c_16 length=10.162500 units=m
new line.LVN_3_24 bus1=LVN_3_b37 bus2=LVN_3_b63 phases=3 linecode=4c_35 length=4.367810 units=m
new line.LVN_3_25 bus1=LVN_3_b49 bus2=LVN_3_b51 phases=3 linecode=2c_16 length=9.795470 units=m
new line.LVN_3_26 bus1=LVN_3_b51 bus2=LVN_3_b52 phases=3 linecode=2c_022 length=10.851000 units=m
new line.LVN_3_27 bus1=LVN_3_b51 bus2=LVN_3_b62 phases=3 linecode=2c_16 length=11.775200 units=m
new line.LVN_3_28 bus1=LVN_3_b51 bus2=LVN_3_b67 phases=3 linecode=4c_35 length=6.980820 units=m
new line.LVN_3_29 bus1=LVN_3_b55 bus2=LVN_3_b78 phases=3 linecode=2c_022 length=11.744200 units=m
new line.LVN_3_30 bus1=LVN_3_b55 bus2=LVN_3_b79 phases=3 linecode=2c_022 length=11.341100 units=m
new line.LVN_3_31 bus1=LVN_3_b55 bus2=LVN_3_b82 phases=3 linecode=35_SA length=8.633070 units=m
new line.LVN_3_32 bus1=LVN_3_b63 bus2=LVN_3_b67 phases=3 linecode=4c_35 length=13.321300 units=m
new line.LVN_3_33 bus1=LVN_3_b63 bus2=LVN_3_b342 phases=3 linecode=4c_35 length=3.237760 units=m
new line.LVN_3_34 bus1=LVN_3_b67 bus2=LVN_3_b86 phases=3 linecode=4c_35 length=12.984800 units=m
new line.LVN_3_35 bus1=LVN_3_b73 bus2=LVN_3_b89 phases=3 linecode=2c_022 length=10.914700 units=m
new line.LVN_3_36 bus1=LVN_3_b73 bus2=LVN_3_b96 phases=3 linecode=2c_16 length=5.461640 units=m
new line.LVN_3_37 bus1=LVN_3_b86 bus2=LVN_3_b88 phases=3 linecode=4c_35 length=3.827680 units=m
new line.LVN_3_38 bus1=LVN_3_b86 bus2=LVN_3_b344 phases=3 linecode=4c_35 length=1.451550 units=m
new line.LVN_3_39 bus1=LVN_3_b88 bus2=LVN_3_b104 phases=3 linecode=2c_16 length=12.448400 units=m
new line.LVN_3_40 bus1=LVN_3_b88 bus2=LVN_3_b107 phases=3 linecode=2c_16 length=9.503000 units=m
new line.LVN_3_41 bus1=LVN_3_b99 bus2=LVN_3_b100 phases=3 linecode=4c_35 length=10.209900 units=m
new line.LVN_3_42 bus1=LVN_3_b99 bus2=LVN_3_b110 phases=3 linecode=4c_35 length=14.523600 units=m
new line.LVN_3_43 bus1=LVN_3_b100 bus2=LVN_3_b118 phases=3 linecode=4c_35 length=14.474400 units=m
new line.LVN_3_44 bus1=LVN_3_b100 bus2=LVN_3_b120 phases=3 linecode=4c_35 length=21.021500 units=m
new line.LVN_3_45 bus1=LVN_3_b110 bus2=LVN_3_b159 phases=3 linecode=35_SA length=5.847480 units=m
new line.LVN_3_46 bus1=LVN_3_b110 bus2=LVN_3_b161 phases=3 linecode=2c_022 length=4.580750 units=m
new line.LVN_3_47 bus1=LVN_3_b110 bus2=LVN_3_b164 phases=3 linecode=2c_022 length=5.145380 units=m
new line.LVN_3_48 bus1=LVN_3_b111 bus2=LVN_3_b115 phases=3 linecode=35_SA length=9.846810 units=m
new line.LVN_3_49 bus1=LVN_3_b115 bus2=LVN_3_b121 phases=3 linecode=2c_16 length=9.598070 units=m
new line.LVN_3_50 bus1=LVN_3_b115 bus2=LVN_3_b135 phases=3 linecode=2c_16 length=6.512070 units=m
new line.LVN_3_51 bus1=LVN_3_b115 bus2=LVN_3_b155 phases=3 linecode=4c_35 length=6.673280 units=m
new line.LVN_3_52 bus1=LVN_3_b118 bus2=LVN_3_b177 phases=3 linecode=35_SA length=7.486140 units=m
new line.LVN_3_53 bus1=LVN_3_b118 bus2=LVN_3_b178 phases=3 linecode=2c_022 length=5.076060 units=m
new line.LVN_3_54 bus1=LVN_3_b118 bus2=LVN_3_b181 phases=3 linecode=4c_35 length=2.857500 units=m
new line.LVN_3_55 bus1=LVN_3_b120 bus2=LVN_3_b144 phases=3 linecode=4c_35 length=24.559500 units=m
new line.LVN_3_56 bus1=LVN_3_b120 bus2=LVN_3_b150 phases=3 linecode=4c_35 length=9.292560 units=m
new line.LVN_3_57 bus1=LVN_3_b125 bus2=LVN_3_b129 phases=3 linecode=35_SA length=9.566600 units=m
new line.LVN_3_58 bus1=LVN_3_b125 bus2=LVN_3_b130 phases=3 linecode=35_SA length=7.522790 units=m
new line.LVN_3_59 bus1=LVN_3_b125 bus2=LVN_3_b151 phases=3 linecode=4c_35 length=1.947450 units=m
new line.LVN_3_60 bus1=LVN_3_b136 bus2=LVN_3_b138 phases=3 linecode=35_SA length=6.858240 units=m
new line.LVN_3_61 bus1=LVN_3_b136 bus2=LVN_3_b155 phases=3 linecode=4c_35 length=10.513900 units=m
new line.LVN_3_62 bus1=LVN_3_b136 bus2=LVN_3_b167 phases=3 linecode=2c_16 length=4.727660 units=m
new line.LVN_3_63 bus1=LVN_3_b139 bus2=LVN_3_b143 phases=3 linecode=2c_16 length=8.622860 units=m
new line.LVN_3_64 bus1=LVN_3_b143 bus2=LVN_3_b156 phases=3 linecode=2c_16 length=7.696640 units=m
new line.LVN_3_65 bus1=LVN_3_b143 bus2=LVN_3_b174 phases=3 linecode=35_SA length=8.044820 units=m
new line.LVN_3_66 bus1=LVN_3_b143 bus2=LVN_3_b199 phases=3 linecode=4c_35 length=4.460900 units=m
new line.LVN_3_67 bus1=LVN_3_b144 bus2=LVN_3_b151 phases=3 linecode=4c_35 length=3.773920 units=m
new line.LVN_3_68 bus1=LVN_3_b144 bus2=LVN_3_b166 phases=3 linecode=4c_35 length=5.053800 units=m
new line.LVN_3_69 bus1=LVN_3_b150 bus2=LVN_3_b183 phases=3 linecode=2c_16 length=7.934430 units=m
new line.LVN_3_70 bus1=LVN_3_b150 bus2=LVN_3_b203 phases=3 linecode=35_SA length=7.988580 units=m
new line.LVN_3_71 bus1=LVN_3_b150 bus2=LVN_3_b209 phases=3 linecode=35_SA length=11.425400 units=m
new line.LVN_3_72 bus1=LVN_3_b151 bus2=LVN_3_b154 phases=3 linecode=35_SA length=7.179550 units=m
new line.LVN_3_73 bus1=LVN_3_b155 bus2=LVN_3_b199 phases=3 linecode=4c_35 length=13.283400 units=m
new line.LVN_3_74 bus1=LVN_3_b155 bus2=LVN_3_b200 phases=3 linecode=4c_35 length=19.995700 units=m
new line.LVN_3_75 bus1=LVN_3_b166 bus2=LVN_3_b219 phases=3 linecode=35_SA length=8.288910 units=m
new line.LVN_3_76 bus1=LVN_3_b166 bus2=LVN_3_b220 phases=3 linecode=4c_35 length=5.280730 units=m
new line.LVN_3_77 bus1=LVN_3_b181 bus2=LVN_3_b202 phases=3 linecode=2c_16 length=5.098040 units=m
new line.LVN_3_78 bus1=LVN_3_b181 bus2=LVN_3_b211 phases=3 linecode=4c_35 length=5.308500 units=m
new line.LVN_3_79 bus1=LVN_3_b184 bus2=LVN_3_b189 phases=3 linecode=35_SA length=12.902800 units=m
new line.LVN_3_80 bus1=LVN_3_b189 bus2=LVN_3_b215 phases=3 linecode=2c_16 length=12.153300 units=m
new line.LVN_3_81 bus1=LVN_3_b189 bus2=LVN_3_b220 phases=3 linecode=4c_35 length=3.099050 units=m
new line.LVN_3_82 bus1=LVN_3_b189 bus2=LVN_3_b235 phases=3 linecode=2c_022 length=11.279200 units=m
new line.LVN_3_83 bus1=LVN_3_b190 bus2=LVN_3_b191 phases=3 linecode=4c_35 length=9.630280 units=m
new line.LVN_3_84 bus1=LVN_3_b190 bus2=LVN_3_b278 phases=3 linecode=4c_35 length=7.778640 units=m
new line.LVN_3_85 bus1=LVN_3_b190 bus2=LVN_3_b310 phases=3 linecode=4c_35 length=9.415830 units=m
new line.LVN_3_86 bus1=LVN_3_b191 bus2=LVN_3_b192 phases=3 linecode=4c_35 length=11.541300 units=m
new line.LVN_3_87 bus1=LVN_3_b191 bus2=LVN_3_b265 phases=3 linecode=4c_35 length=7.004680 units=m
new line.LVN_3_88 bus1=LVN_3_b192 bus2=LVN_3_b246 phases=3 linecode=4c_35 length=4.983430 units=m
new line.LVN_3_89 bus1=LVN_3_b197 bus2=LVN_3_b199 phases=3 linecode=4c_35 length=63.826700 units=m
new line.LVN_3_90 bus1=LVN_3_b197 bus2=LVN_3_b282 phases=3 linecode=4c_35 length=30.311400 units=m
new line.LVN_3_91 bus1=LVN_3_b197 bus2=LVN_3_b311 phases=3 linecode=4c_35 length=10.834800 units=m
new line.LVN_3_92 bus1=LVN_3_b200 bus2=LVN_3_b251 phases=3 linecode=4c_35 length=17.561200 units=m
new line.LVN_3_93 bus1=LVN_3_b200 bus2=LVN_3_b258 phases=3 linecode=2c_16 length=8.175760 units=m
new line.LVN_3_94 bus1=LVN_3_b200 bus2=LVN_3_b261 phases=3 linecode=2c_022 length=9.258810 units=m
new line.LVN_3_95 bus1=LVN_3_b211 bus2=LVN_3_b227 phases=3 linecode=35_SA length=4.447190 units=m
new line.LVN_3_96 bus1=LVN_3_b211 bus2=LVN_3_b228 phases=3 linecode=2c_022 length=4.563150 units=m
new line.LVN_3_97 bus1=LVN_3_b211 bus2=LVN_3_b232 phases=3 linecode=35_SA length=3.481150 units=m
new line.LVN_3_98 bus1=LVN_3_b220 bus2=LVN_3_b224 phases=3 linecode=35_SA length=6.902900 units=m
new line.LVN_3_99 bus1=LVN_3_b236 bus2=LVN_3_b238 phases=3 linecode=35_SA length=6.451830 units=m
new line.LVN_3_100 bus1=LVN_3_b236 bus2=LVN_3_b239 phases=3 linecode=2c_16 length=5.208440 units=m
new line.LVN_3_101 bus1=LVN_3_b236 bus2=LVN_3_b251 phases=3 linecode=4c_35 length=6.831830 units=m
new line.LVN_3_102 bus1=LVN_3_b242 bus2=LVN_3_b246 phases=3 linecode=2c_022 length=7.472520 units=m
new line.LVN_3_103 bus1=LVN_3_b246 bus2=LVN_3_b255 phases=3 linecode=2c_16 length=6.634880 units=m
new line.LVN_3_104 bus1=LVN_3_b251 bus2=LVN_3_b272 phases=3 linecode=35_SA length=9.859550 units=m
new line.LVN_3_105 bus1=LVN_3_b251 bus2=LVN_3_b273 phases=3 linecode=4c_35 length=12.133700 units=m
new line.LVN_3_106 bus1=LVN_3_b262 bus2=LVN_3_b265 phases=3 linecode=2c_022 length=4.194050 units=m
new line.LVN_3_107 bus1=LVN_3_b265 bus2=LVN_3_b268 phases=3 linecode=2c_022 length=4.171400 units=m
new line.LVN_3_108 bus1=LVN_3_b273 bus2=LVN_3_b274 phases=3 linecode=2c_022 length=4.502160 units=m
new line.LVN_3_109 bus1=LVN_3_b273 bus2=LVN_3_b284 phases=3 linecode=4c_35 length=9.164700 units=m
new line.LVN_3_110 bus1=LVN_3_b273 bus2=LVN_3_b285 phases=3 linecode=4c_35 length=8.706590 units=m
new line.LVN_3_111 bus1=LVN_3_b275 bus2=LVN_3_b278 phases=3 linecode=35_SA length=4.377610 units=m
new line.LVN_3_112 bus1=LVN_3_b278 bus2=LVN_3_b281 phases=3 linecode=2c_022 length=3.828680 units=m
new line.LVN_3_113 bus1=LVN_3_b282 bus2=LVN_3_b283 phases=3 linecode=4c_35 length=6.183800 units=m
new line.LVN_3_114 bus1=LVN_3_b282 bus2=LVN_3_b327 phases=3 linecode=4c_35 length=11.922200 units=m
new line.LVN_3_115 bus1=LVN_3_b283 bus2=LVN_3_b332 phases=3 linecode=4c_35 length=17.849000 units=m
new line.LVN_3_116 bus1=LVN_3_b283 bus2=LVN_3_b342 phases=3 linecode=4c_35 length=23.289700 units=m
new line.LVN_3_117 bus1=LVN_3_b284 bus2=LVN_3_b314 phases=3 linecode=2c_16 length=5.088660 units=m
new line.LVN_3_118 bus1=LVN_3_b284 bus2=LVN_3_b317 phases=3 linecode=2c_022 length=8.176280 units=m
new line.LVN_3_119 bus1=LVN_3_b285 bus2=LVN_3_b298 phases=3 linecode=2c_022 length=12.165800 units=m
new line.LVN_3_120 bus1=LVN_3_b285 bus2=LVN_3_b303 phases=3 linecode=2c_022 length=7.007330 units=m
new line.LVN_3_121 bus1=LVN_3_b286 bus2=LVN_3_b289 phases=3 linecode=2c_022 length=8.249830 units=m
new line.LVN_3_122 bus1=LVN_3_b286 bus2=LVN_3_b307 phases=3 linecode=35_SA length=4.313160 units=m
new line.LVN_3_123 bus1=LVN_3_b286 bus2=LVN_3_b311 phases=3 linecode=4c_35 length=5.078410 units=m
new line.LVN_3_124 bus1=LVN_3_b290 bus2=LVN_3_b293 phases=3 linecode=35_SA length=4.951210 units=m
new line.LVN_3_125 bus1=LVN_3_b293 bus2=LVN_3_b296 phases=3 linecode=2c_022 length=4.477430 units=m
new line.LVN_3_126 bus1=LVN_3_b293 bus2=LVN_3_b297 phases=3 linecode=4c_35 length=3.841030 units=m
new line.LVN_3_127 bus1=LVN_3_b297 bus2=LVN_3_b306 phases=3 linecode=2c_16 length=7.031910 units=m
new line.LVN_3_128 bus1=LVN_3_b297 bus2=LVN_3_b310 phases=3 linecode=4c_35 length=4.187260 units=m
new line.LVN_3_129 bus1=LVN_3_b310 bus2=LVN_3_b311 phases=3 linecode=4c_35 length=11.105800 units=m
new line.LVN_3_130 bus1=LVN_3_b319 bus2=LVN_3_b321 phases=3 linecode=2c_022 length=6.865060 units=m
new line.LVN_3_131 bus1=LVN_3_b319 bus2=LVN_3_b323 phases=3 linecode=2c_16 length=7.316180 units=m
new line.LVN_3_132 bus1=LVN_3_b319 bus2=LVN_3_b324 phases=3 linecode=2c_16 length=6.928480 units=m
new line.LVN_3_133 bus1=LVN_3_b319 bus2=LVN_3_b332 phases=3 linecode=4c_35 length=11.097300 units=m
new line.LVN_3_134 bus1=LVN_3_b327 bus2=LVN_3_b331 phases=3 linecode=35_SA length=15.830800 units=m
new line.LVN_3_135 bus1=LVN_3_b327 bus2=LVN_3_b333 phases=3 linecode=4c_35 length=16.540000 units=m
new line.LVN_3_136 bus1=LVN_3_b332 bus2=LVN_3_b345 phases=3 linecode=2c_16 length=11.298800 units=m
new line.LVN_3_137 bus1=LVN_3_b333 bus2=LVN_3_b337 phases=3 linecode=2c_022 length=13.643700 units=m
new line.LVN_3_138 bus1=LVN_3_b333 bus2=LVN_3_b338 phases=3 linecode=4c_35 length=16.109900 units=m
new line.LVN_3_139 bus1=LVN_3_b338 bus2=LVN_3_b350 phases=3 linecode=4c_35 length=13.762300 units=m
new line.LVN_3_140 bus1=LVN_3_b342 bus2=LVN_3_b354 phases=3 linecode=4c_35 length=12.608600 units=m
new line.LVN_3_141 bus1=LVN_3_b344 bus2=LVN_3_b374 phases=3 linecode=4c_35 length=11.436100 units=m
new line.LVN_3_142 bus1=LVN_3_b344 bus2=LVN_3_b375 phases=3 linecode=4c_35 length=16.454300 units=m
new line.LVN_3_143 bus1=LVN_3_b350 bus2=LVN_3_b357 phases=3 linecode=35_SA length=11.976000 units=m
new line.LVN_3_144 bus1=LVN_3_b350 bus2=LVN_3_b367 phases=3 linecode=4c_35 length=23.258500 units=m
new line.LVN_3_145 bus1=LVN_3_b350 bus2=LVN_3_b370 phases=3 linecode=35_SA length=12.861500 units=m
new line.LVN_3_146 bus1=LVN_3_b351 bus2=LVN_3_b354 phases=3 linecode=2c_16 length=10.857900 units=m
new line.LVN_3_147 bus1=LVN_3_b354 bus2=LVN_3_b361 phases=3 linecode=4c_35 length=9.343730 units=m
new line.LVN_3_148 bus1=LVN_3_b354 bus2=LVN_3_b366 phases=3 linecode=35_SA length=8.309790 units=m
new line.LVN_3_149 bus1=LVN_3_b358 bus2=LVN_3_b361 phases=3 linecode=2c_16 length=9.215360 units=m
new line.LVN_3_150 bus1=LVN_3_b361 bus2=LVN_3_b364 phases=3 linecode=2c_16 length=8.830810 units=m
new line.LVN_3_151 bus1=LVN_3_b367 bus2=LVN_3_b381 phases=3 linecode=2c_16 length=10.634700 units=m
new line.LVN_3_152 bus1=LVN_3_b367 bus2=LVN_3_b386 phases=3 linecode=2c_022 length=19.027700 units=m
new line.LVN_3_153 bus1=LVN_3_b374 bus2=LVN_3_b387 phases=3 linecode=2c_16 length=5.370680 units=m
new line.LVN_3_154 bus1=LVN_3_b374 bus2=LVN_3_b393 phases=3 linecode=2c_022 length=7.718150 units=m
new line.LVN_3_155 bus1=LVN_3_b374 bus2=LVN_3_b395 phases=3 linecode=35_SA length=4.978660 units=m
new line.LVN_3_156 bus1=LVN_3_b375 bus2=LVN_3_b378 phases=3 linecode=4c_35 length=10.470100 units=m
new line.LVN_3_157 bus1=LVN_3_b375 bus2=LVN_3_b380 phases=3 linecode=35_SA length=8.070380 units=m
new line.LVN_3_158 bus1=LVN_3_b378 bus2=LVN_3_b398 phases=3 linecode=35_SA length=5.792190 units=m
new line.LVN_3_159 bus1=LVN_3_b378 bus2=LVN_3_b401 phases=3 linecode=35_SA length=7.309470 units=m
new line.LVN_3_160 bus1=LVN_3_b378 bus2=LVN_3_b405 phases=3 linecode=35_SA length=12.207300 units=m
